&NAMECECFG
    ECE_CPL_AMIP = .false.
    ECE_CPL_NEMO_LIM = .false.
    ECE_CPL_FESOM_FESIM = .true.
    ECE_CPL_NEMO_WEIGHTED_ICE = .false.
    ECE_CPL_NEMO_CONSERVATIVE_HEATFLUX = .false.
    ECE_LANDICE = .true.
    ECE_LANDICE_THRESH = 0.5
    NISMRGNS = 1
    ISMRGNPFX(1) = 'antar'
    ISMRGNCIS(1) = .false.
    ECE_CPL_LPJG = .true.
/

&NAMECECMIP
    LCMIP6 = .false.
    LCMIP7 = .true.
    CMIP7DATADIR = '/work/bb1469/a270089/input/oifs-48r1/cmip-data/'
    NCMIPFIXYR = 1850
    SCENARIONAME = 'SSP2-4.5'
    LMACV2SP = .true.
    LMACV2SP_CCNF = .true.
/

&NAMIOS
    CFRCF = './rcf'
    CIOSPRF = './srf'
/

&NAMGRIB
    CFCLASS = 'rd'
    NCYCLE = 154
/

&NAMCVER
    LVERTFE = .true.
    NVSCH = 3
    LVFE_GWMPA = .true.
    LVFE_GW = .false.
    LVFE_Z_TERM = .false.
    LVFE_X_TERM = .false.
    LVFE_LAPL_BC = .true.
    LVFE_LAPL = .true.
    NDLNPR = 0
/

&NAMMCC
    LMCCEC = .true.
    NFRCPL = 0
    LMCCDYNSEAICE = .true.
    LMCC_COMPO = .false.
    LNEMOLIMCUR = .true.
/

&NAMORB
    LCORBMD = .true.
    ORBMODE = 'variable_year'
    ORBIY = 1990
/

&NAMTRANS
    LUSEFLT = .false.
    LFFTW = .true.
/

&NAMRES
    NFRRES = 1
    NRESTS(:) = 1, 8760
/

&NAERAD
    CRTABLEDIR = '/work/ab0246/a270092/input//oifs-48r1/rtables/'
    NRPROMA = 0
    CSOLARIRRADIANCEFILE = './ifsdata/total_solar_irradiance_CMIP6_49r1.nc'
    LECOMPGRID = .true.
    NRADFR = -3
    NDECOLAT = 0
    NO3CMIP = 7
    CO3DATADIR = '/work/ab0246/a270092/input//oifs-48r1/cmip7-data'
    CCMIP_STRAT_FULL = '/work/ab0246/a270092/input//oifs-48r1/cmip7-data/strat_aer/CMIP7_stratospheric_aerosols_opt_EC_EARTH_historical_1750-2023_2-2-1_L91.nc'
    CCMIP_STRAT_FULL_CLIM = '/work/ab0246/a270092/input//oifs-48r1/cmip7-data/strat_aer/CMIP7_stratospheric_aerosols_opt_EC_EARTH_climatology2-2-1_L91.nc'
    LCMIP_STRATAER_CMIP7 = .true.
    LCMIP_STRATAER_BCKGD = .false.
    NCMIPFIXYR = 1850
    LAER3D = .false.
/

&NAEPHY
    LEPHYS = .true.
    LEVDIF = .true.
    LESURF = .true.
    LECOND = .true.
    LECUMF = .true.
    LEPCLD = .true.
    LEEVAP = .true.
    LEVGEN = .true.
    LESSRO = .true.
    LECURR = .true.
    LEOCWA = .true.
    LEGWDG = .true.
    LEGWWMS = .true.
    LEOZOC = .true.
    LEQNGT = .true.
    LERADI = .true.
    LERADS = .true.
    LELAIV = .false.
    LESICE = .true.
    LEO3CH = .true.
    LO3CH_HLO = .true.
    CO3CHEM = 'H1.0'
    LEDCLD = .true.
    LDUCTDIA = .false.
    LDIAGTURB_EC = .false.
    LELIGHT = .false.
    LWCOU = .true.
    LWCOU2W = .true.
    LWCOUHMF = .false.
    LWCOURNW = .false.
    NSTPW = 1
    LSLPHY = .true.
    LESNML = .true.
    NSNMLWS = 2
    LEFARQUHAR = .true.
    LEOPTSURF = .false.
    LEAIRCO2COUP = .false.
    LEC4MAP = .true.
    LEAGS = .false.
    RCIMIN = 0.0
    NALBEDOSCHEME = 3
    LRDALB = .false.
/

&NAMPAR1
    NOUTTYPE = 1
    LSPLIT = .true.
    NWRTOUT = 4
    NFLDIN = 0
    NSTRIN = 1
/

&NAMPAR0
    LSTATS = .true.
    LDETAILED_STATS = .false.
    LSYNCSTATS = .false.
    LSTATSCPU = .false.
    NPRNT_STATS = 62
    LBARRIER_STATS = .false.
    LBARRIER_STATS2 = .false.
    NPROC = 384
    NSPECRESMIN = 96
    NOUTPUT = 1
    MP_TYPE = 1
    MBX_SIZE = 0
/

&NAMDYNA
    LSLAG = .true.
    LNHEE = .false.
    LNHQE = .false.
    LGRADSP = .false.
/

&NAMDYNCORE
    LAQUA = .false.
/

&NAMDYN
    LMASCOR = .true.
    NITMP = 3
    LMASDRY = .false.
/

&NAMNMI
    LASSI = .false.
/

&NAMCT0
    LARPEGEF = .false.
    LFDBOP = .false.
    LSMSSIG = .false.
    N3DINI = 0
    NFRDHP = 12
    NFRDHFD = 1
    NFRSDI = 1
    NFRPOS = 1
    NFRHIS = 1
    NFRMASSCON = 1
    NFPOS = 2
    NPOSTS = 0
    NHISTS = 0
    NMASSCONS = 0
    NFRCO = 4
    NFRDHFZ = 48
    NDHFZTS = 0
    NDHFDTS = 0
    NUNDEFLD = -999999
    CMETER = 'xmeter'
    CEVENT = 'xevent'
    LXIOS = .true.
/

&NAMDDH
    BDEDDH(1:6,1) = 4.0, 1.0, 0.0, 50.0, 0.0, 49.0
    NDHKD = 72
    LHDZON = .false.
    LHDEFZ = .false.
    LHDDOP = .false.
    LHDEFD = .false.
    LHDGLB = .false.
    LHDPRG = .false.
    LHDHKS = .false.
/

&NAMIO_SERV
    NPROCESS_LEVEL = 5
    NIO_SERV_METHOD = 2
    NMSG_LEVEL_CLIENT = 0
    NMSG_LEVEL_SERVER = 1
/

&NAMGFL
    YQ_NL%LGP = .true.
    YQ_NL%LSP = .false.
    YL_NL%LGP = .true.
    YI_NL%LGP = .true.
    YA_NL%LGP = .true.
    YO3_NL%LGP = .true.
    NMFDIAGLEV = 1
    NOPTVFE = 0
    YA_NL%LGP = .true.
    YI_NL%BETAMFBC = -1
    YI_NL%LGP = .true.
    YI_NL%LINTLIN = .true.
    YL_NL%BETAMFBC = -1
    YL_NL%LGP = .true.
    YL_NL%LINTLIN = .true.
    YO3_NL%LGP = .true.
    YQ_NL%LSP = .false.
    YR_NL%BETAMFBC = -1
    YR_NL%LINTLIN = .true.
    YS_NL%BETAMFBC = -1
    YS_NL%LINTLIN = .true.
    YS_NL%LMASSFIX = .true.
    YR_NL%LMASSFIX = .true.
    YI_NL%LMASSFIX = .true.
    YL_NL%LMASSFIX = .true.
    YQ_NL%LMASSFIX = .true.
    YQ_NL%BETAMFBC = -1
/

&NAMFPC
/

&NAMDIM
    NPROMA = 0
/

&NAMDPHY
    NCSNEC = 5
/

&NAMGEM
    LNONHYD_GEOM = .false.
    NHTYP = 2
/

&NAMRIP
    TSTEP = 3600
    CSTOP = 't8760'
/

&NAMARG
    NCONF = 1
    CNMEXP = 'awi3'
/

&NAMRLX
/

&NAMVAR
    LMODERR = .false.
    LJCDFI = .false.
    LUSEJCDFI = .false.
    LECV = .false.
/

&NAETLDIAG
/

&NAMVV0
    LLFORCE_READ = .false.
/

&NAEAER
/

&NAMECETUNING
/

&NALBAR
/

&NALORI
/

&NAM_DISTRIBUTED_VECTORS
/

&NAM926
/

&NAMAFN
/

&NAMANA
/

&NAMARPHY
/

&NAMCA
/

&NAMCAPE
/

&NAMCFU
/

&NAMCHK
/

&NAMCHET
/

&NAMCLDP
    RVICE = 0.19
/

&NAMCLTC
/

&NAMCOM
/

&NAMCOS
/

&NAMCTAN
/

&NAMCUMF
/

&NAMCUMFS
/

&NAMCT1
/

&NAMCVA
/

&NAMDFHD
/

&NAMDFI
/

&NAMDIF
/

&NAMDIMO
/

&NAMDMSP
/

&NAMDYNA_STATIC
/

&NAMEMIS_CONF
/

&NAMENKF
/

&NAMFA
/

&NAMFFT
/

&NAMFPD
    NLAT = 192
    NLON = 384
/

&NAMFPDY2
/

&NAMFPDYH
/

&NAMFPDYP
/

&NAMFPDYS
/

&NAMFPDYT
/

&NAMFPDYV
/

&NAMFPEZO
/

&NAMFPF
/

&NAMFPG
    NFPLEV = 91
    NFPMAX = 95
/

&NAMFPIOS
/

&NAMFPPHY
/

&NAMFPSC2
/

&NAMFPSC2_DEP
/

&NAMFY2
/

&NAMGMS
/

&NAMGOES
/

&NAMGOM
/

&NAMGWD
/

&NAMGWWMS
    GGAUSSB = -0.8
/

&NAMHLOPT
/

&NAMINI
/

&NAMIOMI
/

&NAMJBCODES
/

&NAMJFH
/

&NAMJG
/

&NAMJO
/

&NAMKAP
/

&NAMLCZ
/

&NAMLEG
/

&NAMLFI
/

&NAMMCUF
/

&NAMMETEOSAT
/

&NAMMTS
/

&NAMMTSAT
/

&NAMMTT
/

&NAMMUL
/

&NAMNASA
/

&NAMNN
/

&NAMNPROF
/

&NAMNUD
/

&NAMOBS
/

&NAMONEDVAR
/

&NAMOPH
/

&NAMOPTCMEM
/

&NAMPARAR
/

&NAMPHY
/

&NAMPHY0
/

&NAMPHY1
/

&NAMPHY2
/

&NAMPHY3
/

&NAMPHYDS
/

&NAMPPC
    LRSACC = .true.
/

&NAMPONG
/

&NAMRAD15
/

&NAMRADCMEM
/

&NAMRCOEF
/

&NAMRINC
/

&NAMSATS
/

&NAMSCC
/

&NAMSCEN
/

&NAMSCM
/

&NAMSENS
/

&NAMSIMPHL
/

&NAMSKF
/

&NAMSPSDT
/

&NAMSPP
/

&NAMSSMI
/

&NAMSTA
/

&NAMSTOPH
/

&NAMTCWV
/

&NAMTESTVAR
/

&NAMTOPH
/

&NAMTOVS
/

&NAMTRAJP
/

&NAMTRM
/

&NAMVARBC
/

&NAMVARBC_AIREP
/

&NAMVARBC_ALLSKY
/

&NAMVARBC_GBRAD
/

&NAMVARBC_RAD
/

&NAMVARBC_SFCOBS
/

&NAMVARBC_TCWV
/

&NAMVARBC_TO3
/

&NAMVAREPS
/

&NAMVDOZ
/

&NAMVFP
/

&NAMVRTL
/

&NAMVV1
/

&NAMVV2
/

&NAMVWRK
/

&NAMWAVELETJB
/

&NAMXFU
/

&NAMZDI
/

&NAPHLC
/

&NAV1IS
/

&NAEPHLI
/

&NAMPPVI
/

&NAMSPNG
/

&NAMTHLIM
/

&NAMOOPS
/

&NAMINTFLEX
/

&NAMIAU
/

&NAMDIM_TRAJ
/

&NAMVDF
/

&NAMGWDIAG
/

&NAMTRANS0
/

&NAMMETHOX
/

&NAM_ATLAS_IFS
/

&NAMACV
/

&NAM_MGRIDS_ADVECTION
/

&NAMTRAJ
/

&NAMSATSIM
/

&NAMCMEM_MW
/

&NAMPHMSE
/

&NAMNORGWD
/

&NAMCLRADLID
/

&NAMDVISI
/

&NAM_MGRIDS_ADVECTION
/

&NAMNUDGLH
/

&NAMPERTOBS
/

&NAMVARBC_MODES
/
